Geom Title=Geometria
Program Version=6.20
Viewing Rectangle= 1059500 , 1067700 , 1547100 , 1543900 

River Reach=SanAntonio      ,Tramo1          
Reach XY= 1094 
      1067328.03     1544914.107     1067310.253     1544891.032
     1067301.772     1544880.066     1067299.996     1544877.693
     1067299.424     1544876.891      1067298.87     1544876.079
     1067298.341     1544875.254     1067297.847     1544874.409
       1067297.4     1544873.553     1067296.987     1544872.678
     1067296.598      1544871.79     1067295.868     1544869.987
     1067294.497     1544866.333     1067289.808     1544853.482
     1067289.114      1544851.66      1067288.38      1544849.86
     1067287.988     1544848.975     1067287.569     1544848.105
     1067287.115     1544847.255      1067286.61      1544846.42
     1067286.069     1544845.606     1067285.501     1544844.807
     1067284.914     1544844.019     1067283.703     1544842.463
     1067282.467     1544840.922     1067273.736     1544830.179
     1067248.871     1544799.431     1067203.919      1544744.59
     1067201.369     1544741.516      1067200.07     1544740.001
     1067199.408     1544739.254     1067198.737     1544738.519
     1067197.369     1544737.071     1067194.587     1544734.218
     1067171.033     1544710.346      1067134.39      1544673.21
     1067132.272       1544671.1     1067129.481     1544668.396
     1067117.524     1544657.002     1067115.455     1544654.956
     1067114.125     1544653.551     1067113.488     1544652.824
     1067112.877      1544652.08     1067112.287     1544651.318
     1067111.711     1544650.544     1067110.589     1544648.971
     1067108.942     1544646.581     1067101.326     1544635.367
     1067099.676     1544632.977     1067097.987     1544630.608
     1067096.251     1544628.263     1067093.911     1544625.152
     1067091.563     1544622.047     1067089.785     1544619.735
     1067088.574     1544618.218     1067087.953     1544617.475
     1067087.317     1544616.746     1067086.659     1544616.038
     1067085.969     1544615.349     1067085.258     1544614.682
      1067084.53     1544614.029     1067083.044     1544612.754
     1067080.777      1544610.88     1067071.636     1544603.449
     1067068.603     1544600.957     1067066.363     1544599.053
     1067064.912     1544597.738     1067064.196     1544597.047
     1067062.801     1544595.626     1067060.755     1544593.446
     1067047.276     1544578.738     1067045.242     1544576.544
     1067043.182     1544574.372     1067039.684     1544570.804
     1067023.536     1544554.498     1067012.459      1544543.24
     1067003.473     1544534.074     1067001.376     1544531.989
     1066999.943     1544530.643     1066999.206     1544529.995
      1066998.45     1544529.373      1066997.66     1544528.776
      1066996.85     1544528.204      1066995.19     1544527.113
     1066992.647     1544525.541     1066973.835     1544514.226
     1066970.409     1544512.182      1066967.07     1544510.248
     1066956.288     1544504.131     1066954.642      1544503.17
     1066953.953     1544502.753     1066953.012     1544502.182
     1066951.396     1544501.149     1066948.999     1544499.553
     1066938.683     1544492.524     1066937.112     1544491.424
     1066935.566     1544490.297      1066934.81     1544489.715
     1066934.069     1544489.115     1066933.352      1544488.49
     1066932.663     1544487.838     1066931.997     1544487.161
     1066931.347     1544486.466     1066930.076     1544485.044
     1066927.564     1544482.168     1066926.274     1544480.767
     1066925.608     1544480.091     1066924.919     1544479.439
     1066924.171     1544478.791       1066923.4      1544478.17
     1066921.809      1544476.98     1066919.361     1544475.266
     1066916.883     1544473.585     1066914.391     1544471.924
     1066911.872     1544470.306     1066910.248     1544469.321
     1066908.609     1544468.359     1066899.541     1544463.162
       1066897.9     1544462.203     1066896.271     1544461.226
     1066894.639     1544460.206     1066892.213      1544458.64
     1066889.803     1544457.048     1066887.417     1544455.422
     1066885.835     1544454.291     1066883.476     1544452.524
      1066873.36     1544444.714     1066870.235     1544442.328
     1066867.944     1544440.618     1066863.343     1544437.226
     1066857.165     1544432.702     1066835.986     1544417.292
     1066833.574     1544415.567     1066831.126     1544413.849
     1066829.486     1544412.723     1066827.829     1544411.635
      1066826.99     1544411.117      1066826.14     1544410.628
     1066825.274     1544410.176     1066824.387     1544409.779
      1066823.48     1544409.448     1066822.552     1544409.171
     1066821.609     1544408.932     1066820.654      1544408.72
     1066818.724      1544408.35     1066816.778     1544408.017
     1066810.921     1544407.061     1066808.007     1544406.532
     1066807.042     1544406.333     1066806.082     1544406.113
      1066805.13     1544405.867     1066804.222     1544405.599
     1066802.425     1544404.993     1066800.643     1544404.334
     1066797.981       1544403.3     1066794.445     1544401.884
     1066792.696     1544401.153     1066790.981      1544400.38
     1066790.146     1544399.965     1066789.335      1544399.52
     1066788.557     1544399.035     1066787.823     1544398.495
      1066787.11     1544397.856     1066786.444     1544397.157
     1066785.813     1544396.414     1066785.207     1544395.641
     1066784.617     1544394.847     1066782.317     1544391.594
     1066781.138     1544389.994     1066780.524     1544389.219
     1066779.883     1544388.473     1066779.205     1544387.765
     1066778.496     1544387.118      1066777.75     1544386.508
     1066776.978     1544385.926     1066776.187     1544385.364
     1066774.569     1544384.279     1066771.267     1544382.176
      1066762.96     1544376.979     1066759.592      1544374.93
     1066755.323     1544372.405     1066736.509     1544361.346
     1066733.066     1544359.377     1066730.509     1544357.986
     1066726.219     1544355.717     1066710.748     1544347.598
      1066691.63     1544337.675     1066689.015     1544336.339
      1066687.26     1544335.478     1066685.485     1544334.669
     1066684.584     1544334.297     1066683.672     1544333.956
     1066682.751     1544333.639      1066680.89     1544333.054
     1066679.013     1544332.505     1066675.317     1544331.464
     1066672.421     1544330.648     1066669.611     1544329.803
     1066667.713     1544329.177     1066664.885      1544328.18
     1066662.079     1544327.125     1066661.151     1544326.754
     1066659.357     1544325.998     1066655.798     1544324.411
     1066648.707     1544321.173     1066646.042     1544319.973
     1066643.361     1544318.813     1066641.556     1544318.091
     1066639.736     1544317.413     1066636.989     1544316.438
     1066615.859      1544309.13     1066612.172     1544307.897
     1066609.341     1544307.008     1066604.606     1544305.575
     1066573.331     1544296.199     1066570.496     1544295.324
     1066568.617     1544294.711     1066567.683     1544294.388
     1066566.762     1544294.052     1066564.932     1544293.349
     1066562.202     1544292.251     1066539.527      1544282.88
     1066536.801     1544281.771     1066534.975     1544281.059
     1066534.058     1544280.719     1066533.135     1544280.396
     1066532.205     1544280.095     1066531.257      1544279.82
     1066529.342     1544279.333     1066527.411     1544278.896
     1066524.503     1544278.281      1066511.88     1544275.682
     1066508.977     1544275.043     1066507.052     1544274.577
      1066505.18      1544274.07     1066502.388     1544273.251
      1066488.47     1544268.977     1066485.681     1544268.141
     1066483.816     1544267.606     1066481.007     1544266.854
     1066476.307     1544265.662     1066470.661      1544264.26
     1066466.887     1544263.368     1066464.021     1544262.753
      1066461.15     1544262.167     1066429.515     1544255.839
     1066388.551     1544247.439     1066384.646     1544246.659
      1066382.69     1544246.295      1066380.73      1544245.97
     1066378.766     1544245.685     1066376.799     1544245.421
     1066331.497     1544239.686     1066313.771     1544237.416
     1066310.816     1544237.066     1066308.844     1544236.874
     1066307.857     1544236.802      1066306.87     1544236.754
     1066305.877     1544236.736     1066303.887     1544236.768
     1066301.896     1544236.852     1066299.905     1544236.961
     1066274.006     1544238.542     1066180.374     1544244.162
     1066162.442      1544245.22     1066159.455     1544245.407
     1066157.466     1544245.553     1066155.482     1544245.737
     1066154.493     1544245.853     1066153.507     1544245.992
     1066151.539     1544246.318     1066147.617     1544247.065
     1066129.008     1544250.791     1066076.018     1544257.917
     1066065.241     1544260.057     1066023.208     1544271.833
      1066020.28     1544272.451     1066018.348      1544272.92
     1066017.394     1544273.187     1066016.451     1544273.489
     1066015.528      1544273.83     1066014.616     1544274.204
     1066013.713     1544274.603     1066012.816     1544275.019
     1066011.033     1544275.884     1065992.426     1544285.294
      1065953.42     1544304.951     1065948.095      1544307.62
     1065942.773     1544310.241      1065876.17     1544342.856
     1065868.166     1544346.789     1065780.411     1544396.542
     1065727.727     1544428.139     1065724.391     1544430.343
     1065722.731     1544431.457     1065720.269     1544433.162
      1065717.83     1544434.898     1065686.245     1544457.646
     1065682.996     1544459.965      1065680.55     1544461.676
     1065578.927     1544531.252      1065575.64     1544533.484
     1065573.986     1544534.582     1065571.472     1544536.179
     1065567.227     1544538.755     1065488.858     1544585.746
     1065470.983     1544596.501     1065469.274     1544597.511
     1065467.553     1544598.493     1065466.684     1544598.966
     1065465.805     1544599.418     1065464.915     1544599.845
     1065464.013     1544600.236     1065463.099     1544600.601
     1065462.176     1544600.947     1065437.728     1544610.586
     1065426.218     1544613.999     1065413.995     1544616.619
     1065381.437     1544621.847     1065287.937     1544636.815
     1065260.166     1544639.638     1065246.116     1544640.193
     1065234.663     1544639.705     1065204.376     1544634.253
     1065190.065      1544630.29     1065165.252      1544623.45
     1065163.351     1544622.904     1065161.462     1544622.325
     1065160.525     1544622.013     1065159.597     1544621.681
     1065158.673     1544621.319     1065156.847     1544620.535
     1065155.039     1544619.705     1065153.239     1544618.851
     1065139.776     1544612.363     1065116.948     1544601.399
     1065084.991     1544586.057     1065068.814     1544578.315
     1065066.144     1544576.982     1065064.397     1544576.038
     1065063.543     1544575.535     1065062.705     1544575.005
     1065061.882     1544574.451     1065060.262       1544573.3
     1065057.073     1544570.914     1065036.071     1544558.696
     1064994.796     1544527.739     1064976.111     1544509.485
     1064973.757     1544507.649     1064972.224     1544506.384
     1064971.478     1544505.729     1064970.758     1544505.059
     1064970.052     1544504.372     1064968.672     1544502.967
     1064966.639     1544500.815     1064951.857     1544484.898
     1064925.614     1544456.721     1064922.935      1544453.82
     1064920.969     1544451.609     1064920.332     1544450.857
     1064919.088     1544449.305     1064917.877     1544447.726
     1064916.684     1544446.132     1064898.956     1544422.084
     1064896.578     1544418.889     1064895.368      1544417.31
     1064894.124     1544415.758     1064893.482     1544414.997
     1064892.167     1544413.503     1064890.827     1544412.028
     1064888.799     1544409.832     1064876.583     1544396.693
     1064821.668     1544337.523     1064808.811     1544323.614
     1064807.445     1544322.165     1064806.054     1544320.747
     1064805.342     1544320.059     1064804.613     1544319.392
      1064803.86     1544318.754     1064803.078     1544318.153
     1064802.272     1544317.582     1064800.613     1544316.497
     1064798.064     1544314.944     1064781.542     1544300.991
     1064755.877     1544283.529     1064736.298     1544274.533
     1064715.752     1544266.188     1064713.172     1544264.682
     1064711.436     1544263.708      1064710.56      1544263.24
     1064709.674      1544262.79     1064708.782     1544262.365
     1064706.974     1544261.564      1064704.23     1544260.429
     1064681.529     1544248.074     1064643.164     1544232.993
     1064616.814     1544225.503      1064614.97     1544224.782
     1064613.118     1544224.092     1064612.186      1544223.77
     1064611.248     1544223.469     1064610.302       1544223.2
     1064609.344     1544222.969     1064608.378     1544222.769
     1064607.406     1544222.591     1064605.451     1544222.279
     1064603.487        1544222.     1064577.812     1544215.795
     1064527.573     1544213.525     1064503.892     1544213.724
     1064487.215     1544214.809     1064058.511     1544221.981
     1064026.428     1544222.914     1063994.378     1544224.638
     1063962.381     1544227.154     1063930.455     1544230.458
     1063898.621      1544234.55     1063866.898     1544239.426
     1063835.304     1544245.084      1063803.86     1544251.521
     1063772.585     1544258.731     1063741.497     1544266.712
     1063710.615     1544275.457     1063679.959     1544284.963
     1063649.546     1544295.222     1063619.397     1544306.229
     1063589.528     1544317.977     1063559.958     1544330.458
     1063530.706     1544343.666     1063501.788     1544357.592
     1063473.223     1544372.228     1063445.028     1544387.564
      1063417.22     1544403.592     1063389.817     1544420.301
     1063362.834     1544437.682     1063336.289     1544455.724
     1063310.197     1544474.415     1063284.574     1544493.745
     1062888.245     1544800.491     1062873.244      1544812.57
      1062858.72     1544825.219     1062844.693     1544838.417
     1062831.185     1544852.145     1062821.648     1544865.206
      1062813.37      1544879.04     1062789.328     1544910.087
     1062785.701     1544914.728     1062783.852      1544917.04
     1062780.748     1544920.876     1062760.849     1544945.401
     1062751.504     1544956.886      1062749.66     1544959.199
     1062748.466     1544960.765      1062747.89     1544961.562
     1062747.334     1544962.373     1062746.802     1544963.203
     1062746.291     1544964.048     1062745.311     1544965.766
     1062744.362     1544967.504     1062735.069     1544985.016
     1062726.665     1545000.757     1062725.295     1545003.393
     1062724.427     1545005.168     1062724.019     1545006.066
     1062723.637     1545006.975     1062723.287     1545007.901
     1062722.963     1545008.839     1062722.368     1545010.734
     1062721.544     1545013.605     1062718.107     1545026.097
     1062713.321     1545043.384     1062706.398      1545068.35
      1062702.38     1545082.749     1062701.859     1545084.672
     1062701.366     1545086.599     1062701.139     1545087.565
     1062700.931     1545088.535     1062700.751      1545089.51
     1062700.605     1545090.486     1062700.386     1545092.451
     1062700.225     1545094.425     1062700.092     1545096.404
     1062699.025     1545114.235     1062694.411     1545189.505
      1062693.33     1545207.333     1062693.062     1545211.292
     1062692.892     1545213.267     1062692.789     1545214.252
     1062692.669     1545215.241     1062692.391     1545217.213
     1062691.764     1545221.149     1062687.513     1545246.717
     1062675.628     1545318.508     1062674.956     1545322.437
     1062674.591     1545324.396     1062674.185     1545326.343
     1062673.736     1545328.278     1062672.782     1545332.138
     1062662.054      1545374.54      1062658.19     1545389.973
     1062657.688     1545391.894     1062657.149       1545393.8
     1062656.856     1545394.743     1062656.537     1545395.676
     1062656.182     1545396.594     1062655.784     1545397.498
     1062655.349     1545398.388      1062654.89     1545399.267
     1062653.921     1545401.005     1062652.916     1545402.728
     1062643.157     1545421.197      1062632.15     1545439.823
     1062623.331     1545452.522     1062621.793     1545455.091
     1062620.744     1545456.787     1062620.205     1545457.624
     1062619.651     1545458.451     1062619.078     1545459.263
      1062618.49     1545460.042      1062617.26     1545461.561
     1062615.344     1545463.787      1062606.22     1545474.043
     1062598.422     1545482.856     1062595.799     1545485.767
     1062594.453     1545487.186     1062593.763     1545487.875
     1062593.054     1545488.545     1062592.312       1545489.2
     1062590.779     1545490.454     1062589.205     1545491.665
     1062586.813     1545493.447     1062568.481     1545507.726
     1062537.662     1545530.078     1062525.188     1545538.923
     1062513.487     1545546.367     1062505.893     1545549.542
     1062484.316     1545558.922     1062471.087     1545562.229
     1062403.288     1545574.466     1062370.529     1545579.718
     1062316.131     1545585.433     1062287.133     1545585.433
     1062272.316     1545582.893     1062250.726      1545577.39
     1062220.804      1545573.17     1062199.637     1545574.863
     1062188.313     1545577.721     1062175.372     1545580.142
     1062165.424     1545583.952     1062154.926     1545588.748
     1062147.518     1545591.288     1062130.753     1545594.281
     1062115.598     1545595.636     1062039.694     1545600.038
     1062000.684     1545600.695     1061976.765      1545603.87
     1061957.265     1545609.012     1061935.674     1545617.055
      1061883.42     1545642.181     1061842.357     1545669.698
     1061805.213     1545697.875     1061795.846     1545705.345
     1061786.462     1545712.798     1061784.147     1545714.691
      1061782.65     1545715.996     1061781.927     1545716.674
     1061781.232     1545717.377     1061780.569     1545718.112
     1061779.933     1545718.872     1061778.714     1545720.443
     1061776.954     1545722.864     1061770.813     1545730.023
     1061754.091     1545753.518     1061726.786     1545799.238
     1061698.423      1545850.25     1061684.453     1545879.249
     1061672.811     1545903.167     1061663.286     1545927.932
     1061655.031      1545956.93     1061627.475     1546097.057
     1061626.695      1546100.97      1061626.33      1546102.93
      1061626.16     1546103.913     1061625.854     1546105.876
     1061625.182     1546110.801     1061621.444     1546139.595
     1061619.556     1546165.511     1061619.556     1546186.017
     1061615.257     1546200.569     1061605.666     1546220.743
     1061589.129     1546263.407     1061574.246     1546306.071
     1061563.803     1546334.675     1061560.316     1546344.489
     1061556.824     1546351.791     1061552.887     1546357.824
     1061548.563     1546362.784     1061531.715     1546381.749
     1061515.707      1546400.66     1061488.918     1546431.087
     1061449.495     1546473.553     1061416.951      1546510.33
     1061376.734     1546562.453     1061347.101     1546592.087
     1061326.199     1546611.666     1061293.655     1546633.362
     1061275.663     1546643.945     1061257.407     1546651.618
     1061226.451     1546664.053     1061209.782     1546672.785
     1061191.261      1546685.22     1061178.561      1546697.92
     1061174.063     1546713.795     1061173.269     1546729.935
     1061171.417      1546748.72     1061170.359     1546766.183
     1061166.126     1546776.237     1061161.892     1546782.322
     1061154.484     1546788.143     1061147.605      1546790.26
     1061141.784     1546790.524     1061135.303      1546788.77
     1061134.528     1546788.369     1061133.682     1546788.044
     1061132.785     1546787.774     1061131.852     1546787.541
     1061130.895     1546787.334     1061127.095     1546786.607
     1061125.254     1546786.232     1061124.342     1546786.024
     1061123.437     1546785.794     1061122.545     1546785.535
      1061121.67     1546785.236      1061120.82      1546784.89
     1061119.989     1546784.502     1061119.176      1546784.08
      1061118.38     1546783.628     1061117.606     1546783.149
     1061116.855      1546782.64     1061116.135     1546782.099
     1061115.454     1546781.519     1061114.825     1546780.891
     1061114.231     1546780.169     1061113.693     1546779.396
     1061113.194     1546778.587     1061112.724     1546777.751
     1061112.275     1546776.896     1061111.415     1546775.153
     1061110.175     1546772.497     1061108.985     1546769.815
     1061108.247     1546768.007     1061107.578     1546766.155
     1061107.267     1546765.222     1061106.683      1546763.35
     1061106.158     1546761.474     1061105.928     1546760.537
     1061105.731     1546759.601     1061105.579     1546758.667
     1061105.487     1546757.737     1061105.478      1546756.81
     1061105.565     1546755.896     1061105.723     1546754.984
     1061106.339     1546752.239     1061106.502     1546751.311
     1061106.605     1546750.382     1061106.658     1546749.445
     1061106.673     1546748.501     1061106.658     1546747.552
     1061106.567     1546745.645     1061106.414     1546743.733
     1061106.207     1546741.822     1061106.078     1546740.869
     1061105.761     1546738.961     1061105.202     1546736.109
     1061104.598     1546733.265     1061104.173     1546731.378
     1061103.711     1546729.508     1061103.454     1546728.584
     1061103.172     1546727.673     1061102.853     1546726.778
     1061102.485     1546725.907     1061102.045     1546725.046
     1061101.553     1546724.209     1061101.023     1546723.389
     1061100.466     1546722.583     1061099.298     1546720.997
     1061098.085     1546719.438     1061097.465      1546718.67
     1061096.192     1546717.167     1061095.533     1546716.441
     1061094.851      1546715.74     1061094.137     1546715.076
     1061093.378      1546714.45     1061092.587      1546713.86
     1061091.773     1546713.295     1061090.943     1546712.749
       1061088.4     1546711.172     1061078.956     1546705.504
      1061077.24     1546704.498     1061076.381     1546704.013
     1061075.521     1546703.548     1061074.658     1546703.112
     1061073.792     1546702.718     1061072.922     1546702.383
     1061072.046     1546702.128     1061071.161     1546701.984
       1061070.3     1546701.969     1061069.431     1546702.046
     1061066.805     1546702.461     1061065.931     1546702.548
     1061065.061     1546702.548     1061064.201     1546702.434
     1061063.346     1546702.221     1061062.497     1546701.933
     1061061.652     1546701.587     1061060.813     1546701.198
      1061059.98     1546700.772     1061059.125     1546700.301
     1061058.274      1546699.81     1061054.871     1546697.803
     1061054.008     1546697.327     1061053.134     1546696.877
     1061052.245     1546696.463     1061051.353     1546696.098
      1061048.64       1546695.1     1061047.752     1546694.743
     1061046.886     1546694.342     1061046.046     1546693.878
     1061045.235     1546693.362     1061044.446     1546692.807
     1061043.677     1546692.219     1061042.929     1546691.606
     1061042.204     1546690.968     1061041.506     1546690.307
     1061040.845     1546689.617     1061040.231     1546688.894
     1061039.682     1546688.128     1061039.231     1546687.352
     1061038.839     1546686.538      1061038.49     1546685.696
     1061038.172     1546684.834     1061037.877     1546683.957
     1061037.598      1546683.07     1061037.073     1546681.278
     1061036.347     1546678.564     1061035.917     1546676.745
     1061035.731     1546675.832      1061035.58      1546674.97
     1061035.453     1546674.106     1061035.351     1546673.241
     1061035.276     1546672.376     1061035.233      1546671.51
      1061035.23     1546670.644      1061035.28      1546669.67
     1061035.377     1546668.698     1061035.507     1546667.726
      1061035.66     1546666.754     1061035.831     1546665.783
     1061036.203     1546663.843     1061037.193        1546659.
     1061037.575     1546657.042     1061037.745     1546656.063
     1061037.889     1546655.081     1061037.996     1546654.097
     1061038.054     1546653.194      1061038.08     1546652.289
      1061038.06     1546650.474     1061038.024     1546649.565
     1061037.913     1546647.747     1061037.749     1546645.932
     1061037.522     1546644.081     1061037.112     1546641.312
     1061036.652      1546638.55     1061036.316     1546636.715
     1061035.938      1546634.89     1061035.724     1546633.973
     1061034.313     1546628.502     1061033.882     1546626.677
     1061033.499      1546624.85     1061033.146     1546623.016
     1061032.823     1546621.177     1061032.539     1546619.333
     1061032.418     1546618.409     1061032.317     1546617.482
     1061032.241     1546616.555     1061032.143     1546614.694
     1061032.089     1546612.827     1061031.995     1546607.207
     1061031.929     1546605.333     1061031.805     1546603.406
     1061031.719     1546602.448     1061031.614     1546601.497
     1061031.486     1546600.555     1061031.326     1546599.628
     1061031.124     1546598.722     1061030.863     1546597.844
     1061030.525     1546597.007      1061030.12      1546596.27
     1061029.639     1546595.578     1061029.092      1546594.93
     1061028.483     1546594.331     1061027.811     1546593.779
     1061027.092      1546593.27     1061026.339     1546592.795
     1061025.561     1546592.346     1061024.764      1546591.92
     1061023.954     1546591.513     1061023.133     1546591.123
     1061020.614     1546589.991     1061019.793       1546589.6
     1061018.994     1546589.184     1061018.228     1546588.729
     1061017.509     1546588.219     1061016.836     1546587.631
     1061016.212     1546586.984     1061015.627     1546586.291
     1061015.073     1546585.563     1061014.544     1546584.807
     1061014.007     1546583.986     1061013.488     1546583.147
     1061010.458     1546578.012     1061009.931      1546577.17
     1061009.385      1546576.34     1061008.817     1546575.528
     1061007.629     1546573.939     1061005.775     1546571.602
      1061003.88     1546569.295     1061002.594     1546567.779
     1061001.273     1546566.306     1061000.633     1546565.642
     1060999.979     1546564.999     1060999.309     1546564.382
     1060998.622       1546563.8     1060997.914     1546563.261
     1060997.178     1546562.781     1060996.406     1546562.378
     1060995.618     1546562.077     1060994.798     1546561.847
     1060993.952     1546561.671     1060993.089     1546561.534
     1060991.326     1546561.331     1060987.742     1546561.011
     1060984.799     1546560.675     1060980.883     1546560.133
     1060975.295     1546559.296     1060973.525     1546559.056
     1060972.642     1546558.952     1060971.759     1546558.867
     1060970.878     1546558.807     1060969.999     1546558.781
     1060969.035     1546558.802     1060968.078     1546558.873
     1060967.131     1546558.994     1060966.199     1546559.169
     1060965.287     1546559.408     1060964.404     1546559.724
     1060963.662     1546560.074      1060962.94     1546560.477
     1060962.231     1546560.918     1060960.121     1546562.308
     1060959.402     1546562.748     1060958.558     1546563.208
     1060957.693     1546563.615     1060956.809     1546563.961
     1060955.907      1546564.23     1060955.114      1546564.39
     1060954.312     1546564.488     1060953.505     1546564.529
     1060952.697     1546564.515     1060951.894     1546564.443
     1060951.099     1546564.307     1060950.283     1546564.092
      1060949.48     1546563.814      1060948.69     1546563.487
     1060947.913     1546563.121     1060947.151     1546562.723
     1060946.405     1546562.298     1060944.307     1546561.021
     1060943.599     1546560.644      1060942.87     1546560.328
     1060942.097     1546560.087     1060941.299     1546559.915
     1060940.481     1546559.794     1060939.648     1546559.712
     1060938.805     1546559.655     1060935.228      1546559.49
     1060934.298     1546559.422     1060933.377     1546559.328
     1060932.469     1546559.195      1060931.58     1546559.008
     1060930.717      1546558.75     1060929.978     1546558.451
     1060929.258       1546558.1     1060927.124      1546556.93
     1060926.397     1546556.561     1060925.595     1546556.206
     1060924.775     1546555.893     1060923.939     1546555.618
     1060923.093     1546555.381     1060922.238     1546555.183
     1060921.377      1546555.03     1060920.512     1546554.931
     1060919.643     1546554.899     1060918.806      1546554.94
     1060917.967     1546555.038     1060917.126     1546555.178
     1060916.285     1546555.346     1060913.694     1546555.913
     1060912.817     1546556.086      1060911.94     1546556.229
     1060911.062     1546556.327     1060910.092     1546556.369
     1060909.126      1546556.34     1060908.167     1546556.243
     1060907.222     1546556.069     1060906.352     1546555.832
       1060905.5     1546555.532     1060904.664     1546555.179